@<TRIPOS>MOLECULE
ASC
 20 20 0 0 0
SMALL
GASTEIGER

@<TRIPOS>ATOM
      1 O          -1.1358    0.0290   -0.0629 O.3     1  ASC1       -0.4450
      2 O          -2.0580    2.7781   -0.5617 O.3     1  ASC1       -0.3854
      3 O           2.3654    1.1699   -0.0961 O.2     1  ASC1       -0.5042
      4 O           1.5229    3.3072   -0.4614 O.3     1  ASC1       -0.3923
      5 O           2.1151   -1.5828   -0.1795 O.2     1  ASC1       -0.4988
      6 O          -0.8132   -2.2290    0.3297 O.2     1  ASC1       -0.2414
      7 C          -0.2654    1.1741    0.1054 C.3     1  ASC1        0.1912
      8 C          -0.7014    2.3766   -0.7917 C.3     1  ASC1        0.1222
      9 C           1.1011    0.5618   -0.1131 C.2     1  ASC1        0.1863
     10 C           0.1451    3.6170   -0.4710 C.3     1  ASC1        0.0741
     11 C           1.0115   -0.7345   -0.0989 C.2     1  ASC1        0.2437
     12 C          -0.3840   -1.1117    0.0776 C.2     1  ASC1        0.3783
     13 H          -0.4252    1.4751    1.1595 H       1  ASC1        0.0845
     14 H          -0.5987    2.0939   -1.8461 H       1  ASC1        0.0658
     15 H          -0.0320    4.4500   -1.1571 H       1  ASC1        0.0584
     16 H          -0.0738    3.9753    0.5420 H       1  ASC1        0.0584
     17 H          -2.6445    2.0335   -0.7786 H       1  ASC1        0.2101
     18 H           2.4746    1.9457   -0.6434 H       1  ASC1        0.2920
     19 H           1.5747    2.8005    0.3832 H       1  ASC1        0.2095
     20 H           2.8650   -0.9721   -0.2589 H       1  ASC1        0.2925
@<TRIPOS>BOND
     1     1     7    1
     2     1    12    1
     3     2     8    1
     4     2    17    1
     5     3     9    1
     6     3    18    1
     7     4    10    1
     8     4    19    1
     9     5    11    1
    10     5    20    1
    11     6    12    2
    12     7     8    1
    13     7     9    1
    14     7    13    1
    15     8    10    1
    16     8    14    1
    17     9    11    2
    18    10    15    1
    19    10    16    1
    20    11    12    1
